<flow
	id="7"
	name="자동 세탁"
	description="월요일, 목요일 아침 자동 세탁 후 알림"
	isAuto="true">
	
	<trigger
		appid="SYS_TIMER"
		command="---"
		cond="0"
		value="10:00:16"/>
	
	<cowork>
		<action
			appid=""
			command=""/>
		<loop
			appid="SYS_COUNTER"
			command="---">
			<notification
				appid=""
				command=""/>
		</loop>
	</cowork>
	<notification
		appid=""
		command=""/>
	<condition
		appid="SYS_TIMER"
		command="---"
		cond="2"
		value="12:00:00">
		<loop
			appid="SYS_COUNTER"
			command="---">
			<action
				appid=""
				command=""/>
			<notification
				appid=""
				command=""/>
		</loop>
		<action
			appid=""
			command=""/>
	</condition>
</flow>